<?xml version="1.0" encoding="UTF-8"?>
<!-- generated on Tue Oct 24 10:17:02 2017 by SUMO duarouter Version 0.29.0
<?xml version="1.0" encoding="UTF-8"?>

<configuration xmlns:xsi="http://www.w3.org/2001/XMLSchema-instance" xsi:noNamespaceSchemaLocation="http://sumo.dlr.de/xsd/duarouterConfiguration.xsd">

    <input>
        <net-file value="grid.net.xml"/>
        <trip-files value="trips.trips.xml"/>
    </input>

    <output>
        <output-file value="100_16.rou.xml"/>
    </output>

    <processing>
        <ignore-errors value="true"/>
    </processing>

    <time>
        <begin value="0.0"/>
        <end value="100.0"/>
    </time>

    <report>
        <no-warnings value="true"/>
        <no-step-log value="true"/>
    </report>

</configuration>
-->
<routes xmlns:xsi="http://www.w3.org/2001/XMLSchema-instance" xsi:nonamespaceschemalocation="http://sumo.dlr.de/xsd/routes_file.xsd">
 <vehicle depart="0.00" id="0">
  <route edges="B8toB7 B7toB6 B6toB5 B5toB4 B4toB3 B3toC3 C3toC2 C2toB2">
  </route>
 </vehicle>
 <vehicle depart="0.00" id="1">
  <route edges="C10toD10 D10toD11 D11toC11 C11toC12 C12toD12">
  </route>
 </vehicle>
 <vehicle depart="0.00" id="2">
  <route edges="C10toC9 C9toD9 D9toD10 D10toD11 D11toD12 D12toC12">
  </route>
 </vehicle>
 <vehicle depart="0.00" id="3">
  <route edges="B2toA2 A2toA3 A3toA4 A4toA5 A5toB5 B5toC5 C5toC6 C6toC7 C7toC8 C8toC9 C9toC10 C10toD10 D10toD9">
  </route>
 </vehicle>
 <vehicle depart="0.00" id="4">
  <route edges="A10toA11 A11toB11 B11toB10 B10toB9 B9toB8 B8toB7 B7toB6 B6toB5 B5toB4 B4toC4">
  </route>
 </vehicle>
 <vehicle depart="0.00" id="5">
  <route edges="B6toC6 C6toC7 C7toC8 C8toB8 B8toA8 A8toA7">
  </route>
 </vehicle>
 <vehicle depart="0.00" id="6">
  <route edges="D4toD3 D3toC3 C3toC4 C4toC5 C5toB5 B5toB4">
  </route>
 </vehicle>
 <vehicle depart="0.00" id="7">
  <route edges="D7toC7 C7toC6 C6toD6 D6toE6 E6toE5">
  </route>
 </vehicle>
 <vehicle depart="0.00" id="8">
  <route edges="B1toC1 C1toD1 D1toE1 E1toE0">
  </route>
 </vehicle>
 <vehicle depart="0.00" id="9">
  <route edges="D8toD7 D7toC7 C7toC8 C8toC9 C9toC10 C10toC11 C11toD11 D11toD12 D12toD13">
  </route>
 </vehicle>
 <vehicle depart="0.00" id="10">
  <route edges="A11toA12 A12toB12 B12toB13 B13toC13 C13toC12">
  </route>
 </vehicle>
 <vehicle depart="0.00" id="11">
  <route edges="D10toC10 C10toC9 C9toC8 C8toC7 C7toC6 C6toC5 C5toB5 B5toB4 B4toB3">
  </route>
 </vehicle>
 <vehicle depart="0.00" id="12">
  <route edges="B12toC12 C12toC11 C11toC10 C10toC9 C9toC8 C8toC7 C7toB7 B7toB6 B6toB5 B5toA5">
  </route>
 </vehicle>
 <vehicle depart="0.00" id="13">
  <route edges="B2toA2 A2toA3 A3toA4 A4toA5 A5toB5 B5toC5 C5toC6 C6toD6 D6toD7 D7toC7">
  </route>
 </vehicle>
 <vehicle depart="0.00" id="14">
  <route edges="B7toB8 B8toB9 B9toB10 B10toB11 B11toC11 C11toC10">
  </route>
 </vehicle>
 <vehicle depart="0.00" id="15">
  <route edges="D11toC11 C11toC10 C10toC9 C9toC8 C8toC7 C7toC6 C6toD6 D6toD5 D5toE5 E5toE6">
  </route>
 </vehicle>
 <vehicle depart="0.00" id="16">
  <route edges="B4toA4 A4toA5 A5toA6 A6toA7 A7toA8 A8toA9 A9toA10 A10toA11 A11toA12 A12toB12">
  </route>
 </vehicle>
 <vehicle depart="0.00" id="17">
  <route edges="E7toE8 E8toD8 D8toD9 D9toE9">
  </route>
 </vehicle>
 <vehicle depart="0.00" id="18">
  <route edges="D7toD6 D6toD5 D5toD4 D4toC4 C4toC5">
  </route>
 </vehicle>
 <vehicle depart="0.00" id="19">
  <route edges="B13toB12 B12toB11 B11toB10 B10toB9 B9toA9 A9toA10">
  </route>
 </vehicle>
 <vehicle depart="0.00" id="20">
  <route edges="B4toC4 C4toC5 C5toC6 C6toC7 C7toC8 C8toC9 C9toC10 C10toC11 C11toC12 C12toC13 C13toD13">
  </route>
 </vehicle>
 <vehicle depart="0.00" id="21">
  <route edges="A1toB1 B1toC1 C1toD1 D1toE1">
  </route>
 </vehicle>
 <vehicle depart="0.00" id="22">
  <route edges="D3toD4 D4toD5 D5toD6 D6toD7 D7toD8 D8toD9 D9toC9 C9toB9 B9toB10 B10toA10 A10toA9">
  </route>
 </vehicle>
 <vehicle depart="0.00" id="23">
  <route edges="E0toE1 E1toE2 E2toD2 D2toC2 C2toC3">
  </route>
 </vehicle>
 <vehicle depart="0.00" id="24">
  <route edges="E3toE2 E2toE1 E1toD1 D1toC1 C1toC2">
  </route>
 </vehicle>
 <vehicle depart="0.00" id="25">
  <route edges="D7toD8 D8toD9 D9toD10 D10toD11 D11toD12 D12toD13 D13toC13 C13toB13">
  </route>
 </vehicle>
 <vehicle depart="0.00" id="26">
  <route edges="D0toC0 C0toC1 C1toC2 C2toC3 C3toB3">
  </route>
 </vehicle>
 <vehicle depart="0.00" id="27">
  <route edges="A11toA10 A10toA9 A9toA8 A8toA7">
  </route>
 </vehicle>
 <vehicle depart="0.00" id="28">
  <route edges="B13toB12 B12toB11 B11toB10 B10toC10 C10toC11">
  </route>
 </vehicle>
 <vehicle depart="0.00" id="29">
  <route edges="B8toC8 C8toC7 C7toC6 C6toB6 B6toB5 B5toC5 C5toC6">
  </route>
 </vehicle>
 <vehicle depart="0.00" id="30">
  <route edges="D12toC12 C12toC11 C11toC10 C10toC9 C9toC8 C8toC7 C7toC6 C6toC5 C5toC4 C4toC3 C3toC2 C2toC1 C1toC0 C0toD0">
  </route>
 </vehicle>
 <vehicle depart="0.00" id="31">
  <route edges="B5toC5 C5toC4 C4toC3 C3toD3">
  </route>
 </vehicle>
 <vehicle depart="0.00" id="32">
  <route edges="E6toD6 D6toD5 D5toC5 C5toC6 C6toD6 D6toE6">
  </route>
 </vehicle>
 <vehicle depart="0.00" id="33">
  <route edges="D11toE11 E11toE10 E10toE9 E9toD9 D9toD8 D8toE8">
  </route>
 </vehicle>
 <vehicle depart="0.00" id="34">
  <route edges="B13toA13 A13toA12 A12toA11 A11toA10 A10toA9 A9toA8 A8toA7 A7toA6 A6toA5 A5toA4 A4toB4">
  </route>
 </vehicle>
 <vehicle depart="0.00" id="35">
  <route edges="A4toA3 A3toB3 B3toB4 B4toB5 B5toB6 B6toA6 A6toA7">
  </route>
 </vehicle>
 <vehicle depart="0.00" id="36">
  <route edges="A10toA11 A11toB11 B11toC11 C11toD11 D11toD10 D10toC10">
  </route>
 </vehicle>
 <vehicle depart="0.00" id="37">
  <route edges="E3toE2 E2toD2 D2toD3 D3toC3 C3toB3 B3toA3 A3toA4 A4toA5 A5toB5">
  </route>
 </vehicle>
 <vehicle depart="0.00" id="38">
  <route edges="D1toC1 C1toC2 C2toC3 C3toC4 C4toD4 D4toE4 E4toE5 E5toD5">
  </route>
 </vehicle>
 <vehicle depart="0.00" id="39">
  <route edges="D5toE5 E5toE6 E6toE7 E7toD7 D7toC7 C7toB7 B7toB8 B8toA8 A8toA9 A9toA10">
  </route>
 </vehicle>
 <vehicle depart="0.00" id="40">
  <route edges="D10toE10 E10toE9 E9toE8 E8toE7 E7toD7 D7toC7 C7toC6 C6toC5 C5toC4 C4toC3 C3toC2 C2toB2 B2toB1 B1toC1">
  </route>
 </vehicle>
 <vehicle depart="0.00" id="41">
  <route edges="B10toA10 A10toA11">
  </route>
 </vehicle>
 <vehicle depart="0.00" id="42">
  <route edges="C4toD4 D4toD3 D3toE3 E3toE2">
  </route>
 </vehicle>
 <vehicle depart="0.00" id="43">
  <route edges="A5toA4 A4toB4 B4toB5 B5toB6 B6toB7 B7toB8 B8toA8 A8toA9">
  </route>
 </vehicle>
 <vehicle depart="0.00" id="44">
  <route edges="B9toC9 C9toC10 C10toC11 C11toC12 C12toB12 B12toA12 A12toA13">
  </route>
 </vehicle>
 <vehicle depart="0.00" id="45">
  <route edges="C1toB1 B1toB2 B2toB3 B3toC3 C3toD3 D3toD4">
  </route>
 </vehicle>
 <vehicle depart="0.00" id="46">
  <route edges="C13toD13 D13toD12 D12toC12 C12toB12 B12toA12 A12toA13">
  </route>
 </vehicle>
 <vehicle depart="0.00" id="47">
  <route edges="A11toB11 B11toB10 B10toC10 C10toC11 C11toB11 B11toA11">
  </route>
 </vehicle>
 <vehicle depart="0.00" id="48">
  <route edges="D12toD13 D13toC13 C13toC12 C12toC11 C11toC10 C10toC9 C9toD9 D9toD8 D8toD7 D7toD6 D6toD5 D5toD4 D4toD3 D3toE3 E3toE4">
  </route>
 </vehicle>
 <vehicle depart="0.00" id="49">
  <route edges="C3toC2 C2toB2 B2toB3 B3toA3 A3toA4 A4toB4">
  </route>
 </vehicle>
 <vehicle depart="0.00" id="50">
  <route edges="B12toB11 B11toB10 B10toC10 C10toD10">
  </route>
 </vehicle>
 <vehicle depart="0.00" id="51">
  <route edges="A5toA6 A6toA7 A7toB7 B7toB6 B6toA6 A6toA5">
  </route>
 </vehicle>
 <vehicle depart="0.00" id="52">
  <route edges="C12toB12 B12toB11 B11toB10 B10toB9 B9toC9 C9toD9 D9toD8 D8toD7 D7toD6 D6toD5 D5toD4 D4toD3 D3toD2 D2toD1 D1toD0 D0toE0 E0toE1">
  </route>
 </vehicle>
 <vehicle depart="0.00" id="53">
  <route edges="B13toC13 C13toC12 C12toD12 D12toE12 E12toE13 E13toD13">
  </route>
 </vehicle>
 <vehicle depart="0.00" id="54">
  <route edges="E12toE13 E13toD13 D13toD12 D12toC12 C12toC11 C11toD11">
  </route>
 </vehicle>
 <vehicle depart="0.00" id="55">
  <route edges="B12toC12 C12toC11 C11toC10 C10toB10 B10toB11">
  </route>
 </vehicle>
 <vehicle depart="0.00" id="56">
  <route edges="D12toD13 D13toC13 C13toC12 C12toC11 C11toC10 C10toC9 C9toD9 D9toD10">
  </route>
 </vehicle>
 <vehicle depart="0.00" id="57">
  <route edges="E11toE10 E10toD10 D10toC10 C10toB10 B10toB11 B11toC11">
  </route>
 </vehicle>
 <vehicle depart="0.00" id="58">
  <route edges="C11toC12 C12toB12 B12toB11 B11toA11 A11toA10">
  </route>
 </vehicle>
 <vehicle depart="0.00" id="59">
  <route edges="B4toC4 C4toC5 C5toB5 B5toB4 B4toB3">
  </route>
 </vehicle>
 <vehicle depart="0.00" id="60">
  <route edges="A6toA7 A7toB7 B7toB6 B6toB5 B5toB4 B4toB3 B3toA3 A3toA2 A2toB2">
  </route>
 </vehicle>
 <vehicle depart="0.00" id="61">
  <route edges="E9toE10 E10toD10 D10toD9 D9toD8 D8toC8 C8toB8 B8toB7 B7toB6 B6toB5 B5toB4 B4toC4">
  </route>
 </vehicle>
 <vehicle depart="0.00" id="62">
  <route edges="C3toB3 B3toB4 B4toB5 B5toC5 C5toC4">
  </route>
 </vehicle>
 <vehicle depart="0.00" id="63">
  <route edges="C1toC2 C2toC3 C3toC4 C4toC5 C5toC6 C6toC7 C7toC8 C8toC9">
  </route>
 </vehicle>
 <vehicle depart="0.00" id="64">
  <route edges="C3toC2 C2toC1 C1toB1 B1toB2 B2toC2 C2toC3">
  </route>
 </vehicle>
 <vehicle depart="0.00" id="65">
  <route edges="A3toA2 A2toB2 B2toB3 B3toB4 B4toB5 B5toB6 B6toC6 C6toC7 C7toC8 C8toC9 C9toC10 C10toD10 D10toD9">
  </route>
 </vehicle>
 <vehicle depart="0.00" id="66">
  <route edges="D12toD13 D13toC13 C13toC12 C12toC11 C11toC10 C10toC9 C9toD9 D9toD8 D8toD7 D7toD6 D6toD5 D5toD4 D4toD3 D3toD2">
  </route>
 </vehicle>
 <vehicle depart="0.00" id="67">
  <route edges="B5toB4 B4toC4 C4toC5 C5toC6 C6toC7 C7toC8 C8toC9 C9toC10 C10toC11 C11toC12 C12toC13 C13toD13">
  </route>
 </vehicle>
 <vehicle depart="0.00" id="68">
  <route edges="D8toD7 D7toD6 D6toD5 D5toD4 D4toC4 C4toC3 C3toD3 D3toD4">
  </route>
 </vehicle>
 <vehicle depart="0.00" id="69">
  <route edges="A13toB13 B13toB12 B12toB11 B11toB10 B10toB9 B9toB8 B8toB7 B7toB6 B6toC6">
  </route>
 </vehicle>
 <vehicle depart="0.00" id="70">
  <route edges="B0toB1 B1toB2 B2toC2 C2toD2 D2toD3">
  </route>
 </vehicle>
 <vehicle depart="0.00" id="71">
  <route edges="C10toB10 B10toB9 B9toB8 B8toB7 B7toB6 B6toB5 B5toC5 C5toC4 C4toC3 C3toC2 C2toC1 C1toC0 C0toB0">
  </route>
 </vehicle>
 <vehicle depart="0.00" id="72">
  <route edges="B12toB13 B13toC13 C13toC12 C12toD12 D12toD13 D13toC13 C13toB13">
  </route>
 </vehicle>
 <vehicle depart="0.00" id="73">
  <route edges="D2toE2 E2toE3 E3toE4 E4toE5 E5toE6 E6toE7 E7toD7 D7toD8 D8toD9 D9toD10 D10toD11">
  </route>
 </vehicle>
 <vehicle depart="0.00" id="74">
  <route edges="B12toB13 B13toC13 C13toC12 C12toC11 C11toC10 C10toC9 C9toB9 B9toB8 B8toB7 B7toB6 B6toB5 B5toB4 B4toB3 B3toB2 B2toB1 B1toB0 B0toC0 C0toC1">
  </route>
 </vehicle>
 <vehicle depart="0.00" id="75">
  <route edges="D0toE0 E0toE1 E1toD1 D1toC1 C1toB1 B1toA1 A1toA0">
  </route>
 </vehicle>
 <vehicle depart="0.00" id="76">
  <route edges="E2toD2 D2toD3 D3toD4 D4toD5 D5toC5 C5toB5 B5toB6 B6toB7 B7toB8 B8toB9 B9toB10 B10toB11 B11toA11 A11toA10">
  </route>
 </vehicle>
 <vehicle depart="0.00" id="77">
  <route edges="D10toC10 C10toC9 C9toC8 C8toB8 B8toA8 A8toA9">
  </route>
 </vehicle>
 <vehicle depart="0.00" id="78">
  <route edges="E6toE5 E5toE4 E4toE3 E3toE2 E2toE1 E1toD1 D1toD0">
  </route>
 </vehicle>
 <vehicle depart="0.00" id="79">
  <route edges="B12toB13 B13toC13 C13toC12 C12toC11 C11toC10 C10toC9 C9toC8 C8toC7 C7toC6 C6toC5 C5toC4 C4toC3 C3toC2">
  </route>
 </vehicle>
 <vehicle depart="0.00" id="80">
  <route edges="E10toD10 D10toD11 D11toE11 E11toE10 E10toE9">
  </route>
 </vehicle>
 <vehicle depart="0.00" id="81">
  <route edges="D12toD11 D11toD10 D10toE10">
  </route>
 </vehicle>
 <vehicle depart="0.00" id="82">
  <route edges="D4toD3 D3toD2 D2toE2 E2toE3 E3toD3">
  </route>
 </vehicle>
 <vehicle depart="0.00" id="83">
  <route edges="C4toB4 B4toB3 B3toB2 B2toB1 B1toC1 C1toD1 D1toD0 D0toC0">
  </route>
 </vehicle>
 <vehicle depart="0.00" id="84">
  <route edges="D7toE7 E7toE6 E6toE5 E5toE4 E4toD4 D4toC4 C4toC3 C3toD3">
  </route>
 </vehicle>
 <vehicle depart="0.00" id="85">
  <route edges="B12toB11 B11toB10 B10toB9 B9toC9 C9toC8 C8toB8">
  </route>
 </vehicle>
 <vehicle depart="0.00" id="86">
  <route edges="B7toB8 B8toC8 C8toC7 C7toC6 C6toC5 C5toC4 C4toC3 C3toC2 C2toD2 D2toD3">
  </route>
 </vehicle>
 <vehicle depart="0.00" id="87">
  <route edges="D4toE4 E4toE3 E3toE2 E2toE1">
  </route>
 </vehicle>
 <vehicle depart="0.00" id="88">
  <route edges="A5toA6 A6toA7 A7toA8 A8toA9 A9toA10 A10toB10 B10toB11 B11toA11 A11toA10">
  </route>
 </vehicle>
 <vehicle depart="0.00" id="89">
  <route edges="E4toE3 E3toD3 D3toD4">
  </route>
 </vehicle>
 <vehicle depart="0.00" id="90">
  <route edges="E9toE8 E8toD8 D8toD9">
  </route>
 </vehicle>
 <vehicle depart="0.00" id="91">
  <route edges="E6toD6 D6toD7 D7toD8 D8toC8 C8toB8 B8toA8 A8toA9 A9toA10">
  </route>
 </vehicle>
 <vehicle depart="0.00" id="92">
  <route edges="B10toB11 B11toC11 C11toC10 C10toC9 C9toC8 C8toC7 C7toD7 D7toD6 D6toD5 D5toD4 D4toD3 D3toD2 D2toD1 D1toD0 D0toC0">
  </route>
 </vehicle>
 <vehicle depart="0.00" id="93">
  <route edges="D5toD4 D4toC4 C4toC5 C5toC6 C6toB6 B6toA6 A6toA5">
  </route>
 </vehicle>
 <vehicle depart="0.00" id="94">
  <route edges="E5toE6 E6toE7 E7toE8 E8toE9 E9toE10 E10toE11 E11toD11 D11toC11 C11toC12 C12toB12 B12toB13 B13toA13">
  </route>
 </vehicle>
 <vehicle depart="0.00" id="95">
  <route edges="B11toB12 B12toB13 B13toC13 C13toC12 C12toB12">
  </route>
 </vehicle>
 <vehicle depart="0.00" id="96">
  <route edges="B10toB11 B11toA11 A11toA10 A10toA9 A9toA8 A8toA7 A7toA6 A6toA5 A5toA4 A4toA3 A3toB3">
  </route>
 </vehicle>
 <vehicle depart="0.00" id="97">
  <route edges="A3toA2 A2toB2 B2toB3 B3toB4 B4toB5 B5toB6 B6toA6 A6toA7 A7toA8 A8toA9 A9toA10 A10toA11 A11toB11">
  </route>
 </vehicle>
 <vehicle depart="0.00" id="98">
  <route edges="A8toB8 B8toB9 B9toB10 B10toB11 B11toB12 B12toB13 B13toC13 C13toD13 D13toD12">
  </route>
 </vehicle>
 <vehicle depart="0.00" id="99">
  <route edges="D6toD7 D7toE7 E7toE6 E6toD6 D6toC6">
  </route>
 </vehicle>
</routes>
