<?xml version="1.0" encoding="UTF-8"?>

<!-- generated on Fri Oct  6 13:02:57 2017 by SUMO netgenerate Version 0.29.0
<?xml version="1.0" encoding="UTF-8"?>

<configuration xmlns:xsi="http://www.w3.org/2001/XMLSchema-instance" xsi:noNamespaceSchemaLocation="http://sumo.dlr.de/xsd/netgenerateConfiguration.xsd">

    <grid_network>
        <grid value="true"/>
        <grid.x-number value="5"/>
        <grid.y-number value="14"/>
        <grid.x-length value="270"/>
        <grid.y-length value="80"/>
        <grid.alphanumerical-ids value="true"/>
    </grid_network>

    <output>
        <output-file value="grid.net.xml"/>
    </output>

    <processing>
        <no-turnarounds value="true"/>
    </processing>

    <building_defaults>
        <default.lanenumber value="2"/>
    </building_defaults>

</configuration>
-->

<net version="0.27" xmlns:xsi="http://www.w3.org/2001/XMLSchema-instance" xsi:noNamespaceSchemaLocation="http://sumo.dlr.de/xsd/net_file.xsd">

    <location netOffset="0.00,0.00" convBoundary="0.00,0.00,1080.00,1040.00" origBoundary="0.00,0.00,1080.00,1040.00" projParameter="!"/>

    <edge id=":A0_0" function="internal">
        <lane id=":A0_0_0" index="0" speed="13.90" length="15.89" shape="-4.95,6.55 -4.23,1.52 -2.08,-2.07 1.52,-4.23 6.55,-4.95"/>
        <lane id=":A0_0_1" index="1" speed="13.90" length="15.89" shape="-1.65,6.55 -1.14,2.96 0.40,0.40 2.96,-1.14 6.55,-1.65"/>
    </edge>
    <edge id=":A0_2" function="internal">
        <lane id=":A0_2_0" index="0" speed="13.90" length="5.24" shape="6.55,4.95 5.85,5.05 5.35,5.35 5.05,5.85 4.95,6.55"/>
        <lane id=":A0_2_1" index="1" speed="13.90" length="5.24" shape="6.55,1.65 4.41,1.96 2.88,2.88 1.96,4.41 1.65,6.55"/>
    </edge>
    <edge id=":A1_0" function="internal">
        <lane id=":A1_0_0" index="0" speed="13.90" length="16.10" shape="-4.95,88.05 -4.95,71.95"/>
        <lane id=":A1_0_1" index="1" speed="13.90" length="16.10" shape="-1.65,88.05 -1.65,71.95"/>
    </edge>
    <edge id=":A1_2" function="internal">
        <lane id=":A1_2_0" index="0" speed="13.90" length="6.41" shape="-1.65,88.05 -1.04,83.81 0.05,81.98"/>
    </edge>
    <edge id=":A1_8" function="internal">
        <lane id=":A1_8_0" index="0" speed="13.90" length="9.23" shape="0.05,81.98 0.78,80.78 3.81,78.96 8.05,78.35"/>
    </edge>
    <edge id=":A1_3" function="internal">
        <lane id=":A1_3_0" index="0" speed="13.90" length="5.00" shape="8.05,84.95 6.69,85.14 5.73,85.73 5.14,86.69 4.95,88.05"/>
    </edge>
    <edge id=":A1_4" function="internal">
        <lane id=":A1_4_0" index="0" speed="13.90" length="15.64" shape="8.05,81.65 3.81,81.04 0.77,79.23 -1.04,76.19 -1.65,71.95"/>
    </edge>
    <edge id=":A1_5" function="internal">
        <lane id=":A1_5_0" index="0" speed="13.90" length="5.00" shape="4.95,71.95 5.14,73.31 5.73,74.28 6.69,74.86 8.05,75.05"/>
    </edge>
    <edge id=":A1_6" function="internal">
        <lane id=":A1_6_0" index="0" speed="13.90" length="16.10" shape="4.95,71.95 4.95,88.05"/>
        <lane id=":A1_6_1" index="1" speed="13.90" length="16.10" shape="1.65,71.95 1.65,88.05"/>
    </edge>
    <edge id=":A10_0" function="internal">
        <lane id=":A10_0_0" index="0" speed="13.90" length="16.10" shape="-4.95,808.05 -4.95,791.95"/>
        <lane id=":A10_0_1" index="1" speed="13.90" length="16.10" shape="-1.65,808.05 -1.65,791.95"/>
    </edge>
    <edge id=":A10_2" function="internal">
        <lane id=":A10_2_0" index="0" speed="13.90" length="6.41" shape="-1.65,808.05 -1.04,803.81 0.05,801.98"/>
    </edge>
    <edge id=":A10_8" function="internal">
        <lane id=":A10_8_0" index="0" speed="13.90" length="9.23" shape="0.05,801.98 0.78,800.77 3.81,798.96 8.05,798.35"/>
    </edge>
    <edge id=":A10_3" function="internal">
        <lane id=":A10_3_0" index="0" speed="13.90" length="5.00" shape="8.05,804.95 6.69,805.14 5.73,805.73 5.14,806.69 4.95,808.05"/>
    </edge>
    <edge id=":A10_4" function="internal">
        <lane id=":A10_4_0" index="0" speed="13.90" length="15.64" shape="8.05,801.65 3.81,801.04 0.78,799.22 -1.04,796.19 -1.65,791.95"/>
    </edge>
    <edge id=":A10_5" function="internal">
        <lane id=":A10_5_0" index="0" speed="13.90" length="5.00" shape="4.95,791.95 5.14,793.31 5.73,794.27 6.69,794.86 8.05,795.05"/>
    </edge>
    <edge id=":A10_6" function="internal">
        <lane id=":A10_6_0" index="0" speed="13.90" length="16.10" shape="4.95,791.95 4.95,808.05"/>
        <lane id=":A10_6_1" index="1" speed="13.90" length="16.10" shape="1.65,791.95 1.65,808.05"/>
    </edge>
    <edge id=":A11_0" function="internal">
        <lane id=":A11_0_0" index="0" speed="13.90" length="16.10" shape="-4.95,888.05 -4.95,871.95"/>
        <lane id=":A11_0_1" index="1" speed="13.90" length="16.10" shape="-1.65,888.05 -1.65,871.95"/>
    </edge>
    <edge id=":A11_2" function="internal">
        <lane id=":A11_2_0" index="0" speed="13.90" length="6.41" shape="-1.65,888.05 -1.04,883.81 0.05,881.98"/>
    </edge>
    <edge id=":A11_8" function="internal">
        <lane id=":A11_8_0" index="0" speed="13.90" length="9.23" shape="0.05,881.98 0.78,880.77 3.81,878.96 8.05,878.35"/>
    </edge>
    <edge id=":A11_3" function="internal">
        <lane id=":A11_3_0" index="0" speed="13.90" length="5.00" shape="8.05,884.95 6.69,885.14 5.73,885.73 5.14,886.69 4.95,888.05"/>
    </edge>
    <edge id=":A11_4" function="internal">
        <lane id=":A11_4_0" index="0" speed="13.90" length="15.64" shape="8.05,881.65 3.81,881.04 0.78,879.22 -1.04,876.19 -1.65,871.95"/>
    </edge>
    <edge id=":A11_5" function="internal">
        <lane id=":A11_5_0" index="0" speed="13.90" length="5.00" shape="4.95,871.95 5.14,873.31 5.73,874.27 6.69,874.86 8.05,875.05"/>
    </edge>
    <edge id=":A11_6" function="internal">
        <lane id=":A11_6_0" index="0" speed="13.90" length="16.10" shape="4.95,871.95 4.95,888.05"/>
        <lane id=":A11_6_1" index="1" speed="13.90" length="16.10" shape="1.65,871.95 1.65,888.05"/>
    </edge>
    <edge id=":A12_0" function="internal">
        <lane id=":A12_0_0" index="0" speed="13.90" length="16.10" shape="-4.95,968.05 -4.95,951.95"/>
        <lane id=":A12_0_1" index="1" speed="13.90" length="16.10" shape="-1.65,968.05 -1.65,951.95"/>
    </edge>
    <edge id=":A12_2" function="internal">
        <lane id=":A12_2_0" index="0" speed="13.90" length="6.41" shape="-1.65,968.05 -1.04,963.81 0.05,961.98"/>
    </edge>
    <edge id=":A12_8" function="internal">
        <lane id=":A12_8_0" index="0" speed="13.90" length="9.23" shape="0.05,961.98 0.78,960.77 3.81,958.96 8.05,958.35"/>
    </edge>
    <edge id=":A12_3" function="internal">
        <lane id=":A12_3_0" index="0" speed="13.90" length="5.00" shape="8.05,964.95 6.69,965.14 5.73,965.73 5.14,966.69 4.95,968.05"/>
    </edge>
    <edge id=":A12_4" function="internal">
        <lane id=":A12_4_0" index="0" speed="13.90" length="15.64" shape="8.05,961.65 3.81,961.04 0.78,959.22 -1.04,956.19 -1.65,951.95"/>
    </edge>
    <edge id=":A12_5" function="internal">
        <lane id=":A12_5_0" index="0" speed="13.90" length="5.00" shape="4.95,951.95 5.14,953.31 5.73,954.27 6.69,954.86 8.05,955.05"/>
    </edge>
    <edge id=":A12_6" function="internal">
        <lane id=":A12_6_0" index="0" speed="13.90" length="16.10" shape="4.95,951.95 4.95,968.05"/>
        <lane id=":A12_6_1" index="1" speed="13.90" length="16.10" shape="1.65,951.95 1.65,968.05"/>
    </edge>
    <edge id=":A13_0" function="internal">
        <lane id=":A13_0_0" index="0" speed="13.90" length="15.89" shape="6.55,1044.95 1.52,1044.23 -2.08,1042.08 -4.23,1038.48 -4.95,1033.45"/>
        <lane id=":A13_0_1" index="1" speed="13.90" length="15.89" shape="6.55,1041.65 2.96,1041.14 0.40,1039.60 -1.14,1037.04 -1.65,1033.45"/>
    </edge>
    <edge id=":A13_2" function="internal">
        <lane id=":A13_2_0" index="0" speed="13.90" length="5.24" shape="4.95,1033.45 5.05,1034.15 5.35,1034.65 5.85,1034.95 6.55,1035.05"/>
        <lane id=":A13_2_1" index="1" speed="13.90" length="5.24" shape="1.65,1033.45 1.96,1035.59 2.87,1037.12 4.41,1038.04 6.55,1038.35"/>
    </edge>
    <edge id=":A2_0" function="internal">
        <lane id=":A2_0_0" index="0" speed="13.90" length="16.10" shape="-4.95,168.05 -4.95,151.95"/>
        <lane id=":A2_0_1" index="1" speed="13.90" length="16.10" shape="-1.65,168.05 -1.65,151.95"/>
    </edge>
    <edge id=":A2_2" function="internal">
        <lane id=":A2_2_0" index="0" speed="13.90" length="6.41" shape="-1.65,168.05 -1.04,163.81 0.05,161.98"/>
    </edge>
    <edge id=":A2_8" function="internal">
        <lane id=":A2_8_0" index="0" speed="13.90" length="9.23" shape="0.05,161.98 0.78,160.78 3.81,158.96 8.05,158.35"/>
    </edge>
    <edge id=":A2_3" function="internal">
        <lane id=":A2_3_0" index="0" speed="13.90" length="5.00" shape="8.05,164.95 6.69,165.14 5.73,165.72 5.14,166.69 4.95,168.05"/>
    </edge>
    <edge id=":A2_4" function="internal">
        <lane id=":A2_4_0" index="0" speed="13.90" length="15.64" shape="8.05,161.65 3.81,161.04 0.77,159.23 -1.04,156.19 -1.65,151.95"/>
    </edge>
    <edge id=":A2_5" function="internal">
        <lane id=":A2_5_0" index="0" speed="13.90" length="5.00" shape="4.95,151.95 5.14,153.31 5.73,154.28 6.69,154.86 8.05,155.05"/>
    </edge>
    <edge id=":A2_6" function="internal">
        <lane id=":A2_6_0" index="0" speed="13.90" length="16.10" shape="4.95,151.95 4.95,168.05"/>
        <lane id=":A2_6_1" index="1" speed="13.90" length="16.10" shape="1.65,151.95 1.65,168.05"/>
    </edge>
    <edge id=":A3_0" function="internal">
        <lane id=":A3_0_0" index="0" speed="13.90" length="16.10" shape="-4.95,248.05 -4.95,231.95"/>
        <lane id=":A3_0_1" index="1" speed="13.90" length="16.10" shape="-1.65,248.05 -1.65,231.95"/>
    </edge>
    <edge id=":A3_2" function="internal">
        <lane id=":A3_2_0" index="0" speed="13.90" length="6.41" shape="-1.65,248.05 -1.04,243.81 0.05,241.98"/>
    </edge>
    <edge id=":A3_8" function="internal">
        <lane id=":A3_8_0" index="0" speed="13.90" length="9.23" shape="0.05,241.98 0.78,240.78 3.81,238.96 8.05,238.35"/>
    </edge>
    <edge id=":A3_3" function="internal">
        <lane id=":A3_3_0" index="0" speed="13.90" length="5.00" shape="8.05,244.95 6.69,245.14 5.73,245.72 5.14,246.69 4.95,248.05"/>
    </edge>
    <edge id=":A3_4" function="internal">
        <lane id=":A3_4_0" index="0" speed="13.90" length="15.64" shape="8.05,241.65 3.81,241.04 0.77,239.23 -1.04,236.19 -1.65,231.95"/>
    </edge>
    <edge id=":A3_5" function="internal">
        <lane id=":A3_5_0" index="0" speed="13.90" length="5.00" shape="4.95,231.95 5.14,233.31 5.73,234.28 6.69,234.86 8.05,235.05"/>
    </edge>
    <edge id=":A3_6" function="internal">
        <lane id=":A3_6_0" index="0" speed="13.90" length="16.10" shape="4.95,231.95 4.95,248.05"/>
        <lane id=":A3_6_1" index="1" speed="13.90" length="16.10" shape="1.65,231.95 1.65,248.05"/>
    </edge>
    <edge id=":A4_0" function="internal">
        <lane id=":A4_0_0" index="0" speed="13.90" length="16.10" shape="-4.95,328.05 -4.95,311.95"/>
        <lane id=":A4_0_1" index="1" speed="13.90" length="16.10" shape="-1.65,328.05 -1.65,311.95"/>
    </edge>
    <edge id=":A4_2" function="internal">
        <lane id=":A4_2_0" index="0" speed="13.90" length="6.41" shape="-1.65,328.05 -1.04,323.81 0.05,321.98"/>
    </edge>
    <edge id=":A4_8" function="internal">
        <lane id=":A4_8_0" index="0" speed="13.90" length="9.23" shape="0.05,321.98 0.78,320.77 3.81,318.96 8.05,318.35"/>
    </edge>
    <edge id=":A4_3" function="internal">
        <lane id=":A4_3_0" index="0" speed="13.90" length="5.00" shape="8.05,324.95 6.69,325.14 5.73,325.72 5.14,326.69 4.95,328.05"/>
    </edge>
    <edge id=":A4_4" function="internal">
        <lane id=":A4_4_0" index="0" speed="13.90" length="15.64" shape="8.05,321.65 3.81,321.04 0.77,319.22 -1.04,316.19 -1.65,311.95"/>
    </edge>
    <edge id=":A4_5" function="internal">
        <lane id=":A4_5_0" index="0" speed="13.90" length="5.00" shape="4.95,311.95 5.14,313.31 5.73,314.27 6.69,314.86 8.05,315.05"/>
    </edge>
    <edge id=":A4_6" function="internal">
        <lane id=":A4_6_0" index="0" speed="13.90" length="16.10" shape="4.95,311.95 4.95,328.05"/>
        <lane id=":A4_6_1" index="1" speed="13.90" length="16.10" shape="1.65,311.95 1.65,328.05"/>
    </edge>
    <edge id=":A5_0" function="internal">
        <lane id=":A5_0_0" index="0" speed="13.90" length="16.10" shape="-4.95,408.05 -4.95,391.95"/>
        <lane id=":A5_0_1" index="1" speed="13.90" length="16.10" shape="-1.65,408.05 -1.65,391.95"/>
    </edge>
    <edge id=":A5_2" function="internal">
        <lane id=":A5_2_0" index="0" speed="13.90" length="6.41" shape="-1.65,408.05 -1.04,403.81 0.05,401.98"/>
    </edge>
    <edge id=":A5_8" function="internal">
        <lane id=":A5_8_0" index="0" speed="13.90" length="9.23" shape="0.05,401.98 0.78,400.77 3.81,398.96 8.05,398.35"/>
    </edge>
    <edge id=":A5_3" function="internal">
        <lane id=":A5_3_0" index="0" speed="13.90" length="5.00" shape="8.05,404.95 6.69,405.14 5.73,405.72 5.14,406.69 4.95,408.05"/>
    </edge>
    <edge id=":A5_4" function="internal">
        <lane id=":A5_4_0" index="0" speed="13.90" length="15.64" shape="8.05,401.65 3.81,401.04 0.77,399.22 -1.04,396.19 -1.65,391.95"/>
    </edge>
    <edge id=":A5_5" function="internal">
        <lane id=":A5_5_0" index="0" speed="13.90" length="5.00" shape="4.95,391.95 5.14,393.31 5.73,394.27 6.69,394.86 8.05,395.05"/>
    </edge>
    <edge id=":A5_6" function="internal">
        <lane id=":A5_6_0" index="0" speed="13.90" length="16.10" shape="4.95,391.95 4.95,408.05"/>
        <lane id=":A5_6_1" index="1" speed="13.90" length="16.10" shape="1.65,391.95 1.65,408.05"/>
    </edge>
    <edge id=":A6_0" function="internal">
        <lane id=":A6_0_0" index="0" speed="13.90" length="16.10" shape="-4.95,488.05 -4.95,471.95"/>
        <lane id=":A6_0_1" index="1" speed="13.90" length="16.10" shape="-1.65,488.05 -1.65,471.95"/>
    </edge>
    <edge id=":A6_2" function="internal">
        <lane id=":A6_2_0" index="0" speed="13.90" length="6.41" shape="-1.65,488.05 -1.04,483.81 0.05,481.98"/>
    </edge>
    <edge id=":A6_8" function="internal">
        <lane id=":A6_8_0" index="0" speed="13.90" length="9.23" shape="0.05,481.98 0.78,480.77 3.81,478.96 8.05,478.35"/>
    </edge>
    <edge id=":A6_3" function="internal">
        <lane id=":A6_3_0" index="0" speed="13.90" length="5.00" shape="8.05,484.95 6.69,485.14 5.73,485.72 5.14,486.69 4.95,488.05"/>
    </edge>
    <edge id=":A6_4" function="internal">
        <lane id=":A6_4_0" index="0" speed="13.90" length="15.64" shape="8.05,481.65 3.81,481.04 0.77,479.22 -1.04,476.19 -1.65,471.95"/>
    </edge>
    <edge id=":A6_5" function="internal">
        <lane id=":A6_5_0" index="0" speed="13.90" length="5.00" shape="4.95,471.95 5.14,473.31 5.73,474.27 6.69,474.86 8.05,475.05"/>
    </edge>
    <edge id=":A6_6" function="internal">
        <lane id=":A6_6_0" index="0" speed="13.90" length="16.10" shape="4.95,471.95 4.95,488.05"/>
        <lane id=":A6_6_1" index="1" speed="13.90" length="16.10" shape="1.65,471.95 1.65,488.05"/>
    </edge>
    <edge id=":A7_0" function="internal">
        <lane id=":A7_0_0" index="0" speed="13.90" length="16.10" shape="-4.95,568.05 -4.95,551.95"/>
        <lane id=":A7_0_1" index="1" speed="13.90" length="16.10" shape="-1.65,568.05 -1.65,551.95"/>
    </edge>
    <edge id=":A7_2" function="internal">
        <lane id=":A7_2_0" index="0" speed="13.90" length="6.41" shape="-1.65,568.05 -1.04,563.81 0.05,561.98"/>
    </edge>
    <edge id=":A7_8" function="internal">
        <lane id=":A7_8_0" index="0" speed="13.90" length="9.23" shape="0.05,561.98 0.78,560.77 3.81,558.96 8.05,558.35"/>
    </edge>
    <edge id=":A7_3" function="internal">
        <lane id=":A7_3_0" index="0" speed="13.90" length="5.00" shape="8.05,564.95 6.69,565.14 5.73,565.73 5.14,566.69 4.95,568.05"/>
    </edge>
    <edge id=":A7_4" function="internal">
        <lane id=":A7_4_0" index="0" speed="13.90" length="15.64" shape="8.05,561.65 3.81,561.04 0.77,559.22 -1.04,556.19 -1.65,551.95"/>
    </edge>
    <edge id=":A7_5" function="internal">
        <lane id=":A7_5_0" index="0" speed="13.90" length="5.00" shape="4.95,551.95 5.14,553.31 5.73,554.27 6.69,554.86 8.05,555.05"/>
    </edge>
    <edge id=":A7_6" function="internal">
        <lane id=":A7_6_0" index="0" speed="13.90" length="16.10" shape="4.95,551.95 4.95,568.05"/>
        <lane id=":A7_6_1" index="1" speed="13.90" length="16.10" shape="1.65,551.95 1.65,568.05"/>
    </edge>
    <edge id=":A8_0" function="internal">
        <lane id=":A8_0_0" index="0" speed="13.90" length="16.10" shape="-4.95,648.05 -4.95,631.95"/>
        <lane id=":A8_0_1" index="1" speed="13.90" length="16.10" shape="-1.65,648.05 -1.65,631.95"/>
    </edge>
    <edge id=":A8_2" function="internal">
        <lane id=":A8_2_0" index="0" speed="13.90" length="6.41" shape="-1.65,648.05 -1.04,643.81 0.05,641.98"/>
    </edge>
    <edge id=":A8_8" function="internal">
        <lane id=":A8_8_0" index="0" speed="13.90" length="9.23" shape="0.05,641.98 0.78,640.77 3.81,638.96 8.05,638.35"/>
    </edge>
    <edge id=":A8_3" function="internal">
        <lane id=":A8_3_0" index="0" speed="13.90" length="5.00" shape="8.05,644.95 6.69,645.14 5.73,645.73 5.14,646.69 4.95,648.05"/>
    </edge>
    <edge id=":A8_4" function="internal">
        <lane id=":A8_4_0" index="0" speed="13.90" length="15.64" shape="8.05,641.65 3.81,641.04 0.77,639.22 -1.04,636.19 -1.65,631.95"/>
    </edge>
    <edge id=":A8_5" function="internal">
        <lane id=":A8_5_0" index="0" speed="13.90" length="5.00" shape="4.95,631.95 5.14,633.31 5.73,634.27 6.69,634.86 8.05,635.05"/>
    </edge>
    <edge id=":A8_6" function="internal">
        <lane id=":A8_6_0" index="0" speed="13.90" length="16.10" shape="4.95,631.95 4.95,648.05"/>
        <lane id=":A8_6_1" index="1" speed="13.90" length="16.10" shape="1.65,631.95 1.65,648.05"/>
    </edge>
    <edge id=":A9_0" function="internal">
        <lane id=":A9_0_0" index="0" speed="13.90" length="16.10" shape="-4.95,728.05 -4.95,711.95"/>
        <lane id=":A9_0_1" index="1" speed="13.90" length="16.10" shape="-1.65,728.05 -1.65,711.95"/>
    </edge>
    <edge id=":A9_2" function="internal">
        <lane id=":A9_2_0" index="0" speed="13.90" length="6.41" shape="-1.65,728.05 -1.04,723.81 0.05,721.98"/>
    </edge>
    <edge id=":A9_8" function="internal">
        <lane id=":A9_8_0" index="0" speed="13.90" length="9.23" shape="0.05,721.98 0.78,720.77 3.81,718.96 8.05,718.35"/>
    </edge>
    <edge id=":A9_3" function="internal">
        <lane id=":A9_3_0" index="0" speed="13.90" length="5.00" shape="8.05,724.95 6.69,725.14 5.73,725.73 5.14,726.69 4.95,728.05"/>
    </edge>
    <edge id=":A9_4" function="internal">
        <lane id=":A9_4_0" index="0" speed="13.90" length="15.64" shape="8.05,721.65 3.81,721.04 0.78,719.22 -1.04,716.19 -1.65,711.95"/>
    </edge>
    <edge id=":A9_5" function="internal">
        <lane id=":A9_5_0" index="0" speed="13.90" length="5.00" shape="4.95,711.95 5.14,713.31 5.73,714.27 6.69,714.86 8.05,715.05"/>
    </edge>
    <edge id=":A9_6" function="internal">
        <lane id=":A9_6_0" index="0" speed="13.90" length="16.10" shape="4.95,711.95 4.95,728.05"/>
        <lane id=":A9_6_1" index="1" speed="13.90" length="16.10" shape="1.65,711.95 1.65,728.05"/>
    </edge>
    <edge id=":B0_0" function="internal">
        <lane id=":B0_0_0" index="0" speed="13.90" length="5.00" shape="265.05,8.05 264.86,6.69 264.28,5.73 263.31,5.14 261.95,4.95"/>
    </edge>
    <edge id=":B0_1" function="internal">
        <lane id=":B0_1_0" index="0" speed="13.90" length="15.64" shape="268.35,8.05 268.96,3.81 270.78,0.77 273.81,-1.04 278.05,-1.65"/>
    </edge>
    <edge id=":B0_2" function="internal">
        <lane id=":B0_2_0" index="0" speed="13.90" length="5.00" shape="278.05,4.95 276.69,5.14 275.73,5.72 275.14,6.69 274.95,8.05"/>
    </edge>
    <edge id=":B0_3" function="internal">
        <lane id=":B0_3_0" index="0" speed="13.90" length="16.10" shape="278.05,4.95 261.95,4.95"/>
        <lane id=":B0_3_1" index="1" speed="13.90" length="16.10" shape="278.05,1.65 261.95,1.65"/>
    </edge>
    <edge id=":B0_5" function="internal">
        <lane id=":B0_5_0" index="0" speed="13.90" length="16.10" shape="261.95,-4.95 278.05,-4.95"/>
        <lane id=":B0_5_1" index="1" speed="13.90" length="16.10" shape="261.95,-1.65 278.05,-1.65"/>
    </edge>
    <edge id=":B0_7" function="internal">
        <lane id=":B0_7_0" index="0" speed="13.90" length="6.41" shape="261.95,-1.65 266.19,-1.04 268.02,0.05"/>
    </edge>
    <edge id=":B0_8" function="internal">
        <lane id=":B0_8_0" index="0" speed="13.90" length="9.23" shape="268.02,0.05 269.23,0.77 271.04,3.81 271.65,8.05"/>
    </edge>
    <edge id=":B1_0" function="internal">
        <lane id=":B1_0_0" index="0" speed="13.90" length="5.00" shape="265.05,88.05 264.86,86.69 264.28,85.72 263.31,85.14 261.95,84.95"/>
    </edge>
    <edge id=":B1_1" function="internal">
        <lane id=":B1_1_0" index="0" speed="13.90" length="16.10" shape="265.05,88.05 265.05,71.95"/>
        <lane id=":B1_1_1" index="1" speed="13.90" length="16.10" shape="268.35,88.05 268.35,71.95"/>
    </edge>
    <edge id=":B1_3" function="internal">
        <lane id=":B1_3_0" index="0" speed="13.90" length="6.41" shape="268.35,88.05 268.96,83.81 270.05,81.98"/>
    </edge>
    <edge id=":B1_16" function="internal">
        <lane id=":B1_16_0" index="0" speed="13.90" length="9.23" shape="270.05,81.98 270.78,80.78 273.81,78.96 278.05,78.35"/>
    </edge>
    <edge id=":B1_4" function="internal">
        <lane id=":B1_4_0" index="0" speed="13.90" length="5.00" shape="278.05,84.95 276.69,85.14 275.73,85.73 275.14,86.69 274.95,88.05"/>
    </edge>
    <edge id=":B1_5" function="internal">
        <lane id=":B1_5_0" index="0" speed="13.90" length="16.10" shape="278.05,84.95 261.95,84.95"/>
        <lane id=":B1_5_1" index="1" speed="13.90" length="16.10" shape="278.05,81.65 261.95,81.65"/>
    </edge>
    <edge id=":B1_7" function="internal">
        <lane id=":B1_7_0" index="0" speed="13.90" length="15.64" shape="278.05,81.65 273.81,81.04 270.77,79.23 268.96,76.19 268.35,71.95"/>
    </edge>
    <edge id=":B1_8" function="internal">
        <lane id=":B1_8_0" index="0" speed="13.90" length="5.00" shape="274.95,71.95 275.14,73.31 275.72,74.28 276.69,74.86 278.05,75.05"/>
    </edge>
    <edge id=":B1_9" function="internal">
        <lane id=":B1_9_0" index="0" speed="13.90" length="16.10" shape="274.95,71.95 274.95,88.05"/>
        <lane id=":B1_9_1" index="1" speed="13.90" length="16.10" shape="271.65,71.95 271.65,88.05"/>
    </edge>
    <edge id=":B1_11" function="internal">
        <lane id=":B1_11_0" index="0" speed="13.90" length="6.41" shape="271.65,71.95 271.04,76.19 269.95,78.02"/>
    </edge>
    <edge id=":B1_17" function="internal">
        <lane id=":B1_17_0" index="0" speed="13.90" length="9.23" shape="269.95,78.02 269.22,79.22 266.19,81.04 261.95,81.65"/>
    </edge>
    <edge id=":B1_12" function="internal">
        <lane id=":B1_12_0" index="0" speed="13.90" length="5.00" shape="261.95,75.05 263.31,74.86 264.27,74.27 264.86,73.31 265.05,71.95"/>
    </edge>
    <edge id=":B1_13" function="internal">
        <lane id=":B1_13_0" index="0" speed="13.90" length="16.10" shape="261.95,75.05 278.05,75.05"/>
        <lane id=":B1_13_1" index="1" speed="13.90" length="16.10" shape="261.95,78.35 278.05,78.35"/>
    </edge>
    <edge id=":B1_15" function="internal">
        <lane id=":B1_15_0" index="0" speed="13.90" length="15.64" shape="261.95,78.35 266.19,78.96 269.23,80.77 271.04,83.81 271.65,88.05"/>
    </edge>
    <edge id=":B10_0" function="internal">
        <lane id=":B10_0_0" index="0" speed="13.90" length="5.00" shape="265.05,808.05 264.86,806.69 264.28,805.73 263.31,805.14 261.95,804.95"/>
    </edge>
    <edge id=":B10_1" function="internal">
        <lane id=":B10_1_0" index="0" speed="13.90" length="16.10" shape="265.05,808.05 265.05,791.95"/>
        <lane id=":B10_1_1" index="1" speed="13.90" length="16.10" shape="268.35,808.05 268.35,791.95"/>
    </edge>
    <edge id=":B10_3" function="internal">
        <lane id=":B10_3_0" index="0" speed="13.90" length="6.41" shape="268.35,808.05 268.96,803.81 270.05,801.98"/>
    </edge>
    <edge id=":B10_16" function="internal">
        <lane id=":B10_16_0" index="0" speed="13.90" length="9.23" shape="270.05,801.98 270.78,800.77 273.81,798.96 278.05,798.35"/>
    </edge>
    <edge id=":B10_4" function="internal">
        <lane id=":B10_4_0" index="0" speed="13.90" length="5.00" shape="278.05,804.95 276.69,805.14 275.73,805.73 275.14,806.69 274.95,808.05"/>
    </edge>
    <edge id=":B10_5" function="internal">
        <lane id=":B10_5_0" index="0" speed="13.90" length="16.10" shape="278.05,804.95 261.95,804.95"/>
        <lane id=":B10_5_1" index="1" speed="13.90" length="16.10" shape="278.05,801.65 261.95,801.65"/>
    </edge>
    <edge id=":B10_7" function="internal">
        <lane id=":B10_7_0" index="0" speed="13.90" length="15.64" shape="278.05,801.65 273.81,801.04 270.77,799.22 268.96,796.19 268.35,791.95"/>
    </edge>
    <edge id=":B10_8" function="internal">
        <lane id=":B10_8_0" index="0" speed="13.90" length="5.00" shape="274.95,791.95 275.14,793.31 275.72,794.27 276.69,794.86 278.05,795.05"/>
    </edge>
    <edge id=":B10_9" function="internal">
        <lane id=":B10_9_0" index="0" speed="13.90" length="16.10" shape="274.95,791.95 274.95,808.05"/>
        <lane id=":B10_9_1" index="1" speed="13.90" length="16.10" shape="271.65,791.95 271.65,808.05"/>
    </edge>
    <edge id=":B10_11" function="internal">
        <lane id=":B10_11_0" index="0" speed="13.90" length="6.41" shape="271.65,791.95 271.04,796.19 269.95,798.02"/>
    </edge>
    <edge id=":B10_17" function="internal">
        <lane id=":B10_17_0" index="0" speed="13.90" length="9.23" shape="269.95,798.02 269.22,799.23 266.19,801.04 261.95,801.65"/>
    </edge>
    <edge id=":B10_12" function="internal">
        <lane id=":B10_12_0" index="0" speed="13.90" length="5.00" shape="261.95,795.05 263.31,794.86 264.27,794.27 264.86,793.31 265.05,791.95"/>
    </edge>
    <edge id=":B10_13" function="internal">
        <lane id=":B10_13_0" index="0" speed="13.90" length="16.10" shape="261.95,795.05 278.05,795.05"/>
        <lane id=":B10_13_1" index="1" speed="13.90" length="16.10" shape="261.95,798.35 278.05,798.35"/>
    </edge>
    <edge id=":B10_15" function="internal">
        <lane id=":B10_15_0" index="0" speed="13.90" length="15.64" shape="261.95,798.35 266.19,798.96 269.23,800.78 271.04,803.81 271.65,808.05"/>
    </edge>
    <edge id=":B11_0" function="internal">
        <lane id=":B11_0_0" index="0" speed="13.90" length="5.00" shape="265.05,888.05 264.86,886.69 264.28,885.73 263.31,885.14 261.95,884.95"/>
    </edge>
    <edge id=":B11_1" function="internal">
        <lane id=":B11_1_0" index="0" speed="13.90" length="16.10" shape="265.05,888.05 265.05,871.95"/>
        <lane id=":B11_1_1" index="1" speed="13.90" length="16.10" shape="268.35,888.05 268.35,871.95"/>
    </edge>
    <edge id=":B11_3" function="internal">
        <lane id=":B11_3_0" index="0" speed="13.90" length="6.41" shape="268.35,888.05 268.96,883.81 270.05,881.98"/>
    </edge>
    <edge id=":B11_16" function="internal">
        <lane id=":B11_16_0" index="0" speed="13.90" length="9.23" shape="270.05,881.98 270.78,880.77 273.81,878.96 278.05,878.35"/>
    </edge>
    <edge id=":B11_4" function="internal">
        <lane id=":B11_4_0" index="0" speed="13.90" length="5.00" shape="278.05,884.95 276.69,885.14 275.73,885.73 275.14,886.69 274.95,888.05"/>
    </edge>
    <edge id=":B11_5" function="internal">
        <lane id=":B11_5_0" index="0" speed="13.90" length="16.10" shape="278.05,884.95 261.95,884.95"/>
        <lane id=":B11_5_1" index="1" speed="13.90" length="16.10" shape="278.05,881.65 261.95,881.65"/>
    </edge>
    <edge id=":B11_7" function="internal">
        <lane id=":B11_7_0" index="0" speed="13.90" length="15.64" shape="278.05,881.65 273.81,881.04 270.77,879.22 268.96,876.19 268.35,871.95"/>
    </edge>
    <edge id=":B11_8" function="internal">
        <lane id=":B11_8_0" index="0" speed="13.90" length="5.00" shape="274.95,871.95 275.14,873.31 275.72,874.27 276.69,874.86 278.05,875.05"/>
    </edge>
    <edge id=":B11_9" function="internal">
        <lane id=":B11_9_0" index="0" speed="13.90" length="16.10" shape="274.95,871.95 274.95,888.05"/>
        <lane id=":B11_9_1" index="1" speed="13.90" length="16.10" shape="271.65,871.95 271.65,888.05"/>
    </edge>
    <edge id=":B11_11" function="internal">
        <lane id=":B11_11_0" index="0" speed="13.90" length="6.41" shape="271.65,871.95 271.04,876.19 269.95,878.02"/>
    </edge>
    <edge id=":B11_17" function="internal">
        <lane id=":B11_17_0" index="0" speed="13.90" length="9.23" shape="269.95,878.02 269.22,879.23 266.19,881.04 261.95,881.65"/>
    </edge>
    <edge id=":B11_12" function="internal">
        <lane id=":B11_12_0" index="0" speed="13.90" length="5.00" shape="261.95,875.05 263.31,874.86 264.27,874.27 264.86,873.31 265.05,871.95"/>
    </edge>
    <edge id=":B11_13" function="internal">
        <lane id=":B11_13_0" index="0" speed="13.90" length="16.10" shape="261.95,875.05 278.05,875.05"/>
        <lane id=":B11_13_1" index="1" speed="13.90" length="16.10" shape="261.95,878.35 278.05,878.35"/>
    </edge>
    <edge id=":B11_15" function="internal">
        <lane id=":B11_15_0" index="0" speed="13.90" length="15.64" shape="261.95,878.35 266.19,878.96 269.23,880.78 271.04,883.81 271.65,888.05"/>
    </edge>
    <edge id=":B12_0" function="internal">