[General]
cmdenv-express-mode = true
cmdenv-autoflush = true
cmdenv-status-frequency = 100s
**.cmdenv-log-level = info
ned-path = .
##########################################################
#            Simulation parameters                       #
##########################################################
debug-on-errors = true
print-undisposed = false
sim-time-limit = 1000s

seed-set = ${repetition}
repeat = 10

[Config StVehScenario_100_25]
network = com.liborio.sbrc2018.StVehScenario_100_25
**.scalar-recording = true
**.vector-recording = false

**.debug = false
**.coreDebug = false

*.playgroundSizeX = 2500m
*.playgroundSizeY = 2500m
*.playgroundSizeZ = 50m

##########################################################
# Annotation parameters                                  #
##########################################################
*.annotations.draw = true

##########################################################
# Obstacle parameters                                    #
##########################################################
##########################################################
#            TraCIScenarioManager parameters             #
##########################################################
*.manager.updateInterval = 0.1s
*.manager.host = "localhost"
*.manager.port = 9999
*.manager.autoShutdown = true
*.manager.launchConfig = xmldoc(string(${densityMovVeh=100})+"_"+ string(${repetition})+".launchd.xml")
###########################################################
##                       RSU SETTINGS                     #
##                                                        #
##                                                        #
###########################################################
*.rsu[0].mobility.x = 46.0575038438
*.rsu[0].mobility.y = 46.0575038438
*.rsu[0].mobility.z = 1.89

*.rsu[1].mobility.x = 0
*.rsu[1].mobility.y = 0
*.rsu[1].mobility.z = 1.89

*.rsu[2].mobility.x = 39.7487117525
*.rsu[2].mobility.y = 39.7487117525
*.rsu[2].mobility.z = 1.89

*.rsu[3].mobility.x = 0
*.rsu[3].mobility.y = 0
*.rsu[3].mobility.z = 1.89

*.rsu[4].mobility.x = 29.849648723
*.rsu[4].mobility.y = 29.849648723
*.rsu[4].mobility.z = 1.89

*.rsu[5].mobility.x = 83.679764663
*.rsu[5].mobility.y = 83.679764663
*.rsu[5].mobility.z = 1.89

*.rsu[6].mobility.x = 270
*.rsu[6].mobility.y = 270
*.rsu[6].mobility.z = 1.89

*.rsu[7].mobility.x = 0
*.rsu[7].mobility.y = 0
*.rsu[7].mobility.z = 1.89

*.rsu[8].mobility.x = 126.674788497
*.rsu[8].mobility.y = 126.674788497
*.rsu[8].mobility.z = 1.89

*.rsu[9].mobility.x = 12.5905197021
*.rsu[9].mobility.y = 12.5905197021
*.rsu[9].mobility.z = 1.89

*.rsu[10].mobility.x = 270
*.rsu[10].mobility.y = 270
*.rsu[10].mobility.z = 1.89

*.rsu[11].mobility.x = 78.7382950246
*.rsu[11].mobility.y = 78.7382950246
*.rsu[11].mobility.z = 1.89

*.rsu[12].mobility.x = 0
*.rsu[12].mobility.y = 0
*.rsu[12].mobility.z = 1.89

*.rsu[13].mobility.x = 0
*.rsu[13].mobility.y = 0
*.rsu[13].mobility.z = 1.89

*.rsu[14].mobility.x = 375.492395765
*.rsu[14].mobility.y = 375.492395765
*.rsu[14].mobility.z = 1.89

*.rsu[15].mobility.x = 323.947300459
*.rsu[15].mobility.y = 323.947300459
*.rsu[15].mobility.z = 1.89

*.rsu[16].mobility.x = 133.962159198
*.rsu[16].mobility.y = 133.962159198
*.rsu[16].mobility.z = 1.89

*.rsu[17].mobility.x = 78.9187185886
*.rsu[17].mobility.y = 78.9187185886
*.rsu[17].mobility.z = 1.89

*.rsu[18].mobility.x = 261.060383954
*.rsu[18].mobility.y = 261.060383954
*.rsu[18].mobility.z = 1.89

*.rsu[19].mobility.x = 270
*.rsu[19].mobility.y = 270
*.rsu[19].mobility.z = 1.89

*.rsu[20].mobility.x = 270
*.rsu[20].mobility.y = 270
*.rsu[20].mobility.z = 1.89

*.rsu[21].mobility.x = 270
*.rsu[21].mobility.y = 270
*.rsu[21].mobility.z = 1.89

*.rsu[22].mobility.x = 270
*.rsu[22].mobility.y = 270
*.rsu[22].mobility.z = 1.89

*.rsu[23].mobility.x = 270
*.rsu[23].mobility.y = 270
*.rsu[23].mobility.z = 1.89

*.rsu[24].mobility.x = 426.115263869
*.rsu[24].mobility.y = 426.115263869
*.rsu[24].mobility.z = 1.89

*.rsu[*].applType = "StatVehicle"
*.rsu[*].appl.headerLength = 80 bit
*.rsu[*].appl.sendBeacons = true
*.rsu[*].appl.dataOnSch = false
*.rsu[*].appl.beaconInterval = 0.1s
*.rsu[*].appl.beaconUserPriority = 7
*.rsu[*].appl.dataUserPriority = 5
*.rsu[*].appl.seedPar = ${repetition}
##########################################################
#            11p specific parameters                     #
#                                                        #
#                    NIC-Settings                        #
##########################################################
*.connectionManager.sendDirect = true
*.connectionManager.maxInterfDist = 2600m
*.connectionManager.drawMaxIntfDist = false

*.**.nic.mac1609_4.useServiceChannel = false

*.**.nic.mac1609_4.txPower = 20mW
*.**.nic.mac1609_4.bitrate = 6Mbps
*.**.nic.phy80211p.sensitivity = -84.39dBm

*.**.nic.phy80211p.useThermalNoise = true
*.**.nic.phy80211p.thermalNoise = -110dBm

*.**.nic.phy80211p.decider = xmldoc("config.xml")
*.**.nic.phy80211p.analogueModels = xmldoc("config.xml")
*.**.nic.phy80211p.usePropagationDelay = true

*.**.nic.phy80211p.antenna = xmldoc("antenna.xml", "/root/Antenna[@id='monopole']")



##########################################################
#                    WaveAppLayer                        #
##########################################################
*.node[*].applType = "Communication"
*.node[*].appl.headerLength = 80 bit
*.node[*].appl.sendBeacons = true
*.node[*].appl.dataOnSch = false
*.node[*].appl.beaconInterval = 0.1s
*.node[*].appl.wsmInterval = 5s
*.node[*].appl.seedPar = ${repetition}
*.node[*].appl.densityMovVeh = ${densityMovVeh}
*.node[*].appl.densityStatVeh = ${densityStatVeh =25}
##########################################################
#                      Mobility                          #
##########################################################
*.node[*].veinsmobilityType.debug = true
*.node[*].veinsmobility.x = 0
*.node[*].veinsmobility.y = 0
*.node[*].veinsmobility.z = 1.895
*.**.nic.mac1609_4.useServiceChannel = true
output-scalar-file = ${resultdir}/${configname}-${repetition}.sca


[Config StVehScenario_100_50]
network = com.liborio.sbrc2018.StVehScenario_100_50
**.scalar-recording = true
**.vector-recording = false

**.debug = false
**.coreDebug = false

*.playgroundSizeX = 2500m
*.playgroundSizeY = 2500m
*.playgroundSizeZ = 50m

##########################################################
# Annotation parameters                                  #
##########################################################
*.annotations.draw = true

##########################################################
# Obstacle parameters                                    #
##########################################################
##########################################################
#            TraCIScenarioManager parameters             #
##########################################################
*.manager.updateInterval = 0.1s
*.manager.host = "localhost"
*.manager.port = 9999
*.manager.autoShutdown = true
*.manager.launchConfig = xmldoc(string(${densityMovVeh=100})+"_"+ string(${repetition})+".launchd.xml")
###########################################################
##                       RSU SETTINGS                     #
##                                                        #
##                                                        #
###########################################################
*.rsu[0].mobility.x = 111.308614894
*.rsu[0].mobility.y = 111.308614894
*.rsu[0].mobility.z = 1.89

*.rsu[1].mobility.x = 69.4106617102
*.rsu[1].mobility.y = 69.4106617102
*.rsu[1].mobility.z = 1.89

*.rsu[2].mobility.x = 270
*.rsu[2].mobility.y = 270
*.rsu[2].mobility.z = 1.89

*.rsu[3].mobility.x = 84.0325611317
*.rsu[3].mobility.y = 84.0325611317
*.rsu[3].mobility.z = 1.89

*.rsu[4].mobility.x = 79.9747463352
*.rsu[4].mobility.y = 79.9747463352
*.rsu[4].mobility.z = 1.89

*.rsu[5].mobility.x = 270
*.rsu[5].mobility.y = 270
*.rsu[5].mobility.z = 1.89

*.rsu[6].mobility.x = 33.1918892803
*.rsu[6].mobility.y = 33.1918892803
*.rsu[6].mobility.z = 1.89

*.rsu[7].mobility.x = 53.2864839227
*.rsu[7].mobility.y = 53.2864839227
*.rsu[7].mobility.z = 1.89

*.rsu[8].mobility.x = 0
*.rsu[8].mobility.y = 0
*.rsu[8].mobility.z = 1.89

*.rsu[9].mobility.x = 240.195553665
*.rsu[9].mobility.y = 240.195553665
*.rsu[9].mobility.z = 1.89

*.rsu[10].mobility.x = 61.9853106791
*.rsu[10].mobility.y = 61.9853106791
*.rsu[10].mobility.z = 1.89

*.rsu[11].mobility.x = 170.857155977
*.rsu[11].mobility.y = 170.857155977
*.rsu[11].mobility.z = 1.89

*.rsu[12].mobility.x = 270
*.rsu[12].mobility.y = 270
*.rsu[12].mobility.z = 1.89

*.rsu[13].mobility.x = 270
*.rsu[13].mobility.y = 270
*.rsu[13].mobility.z = 1.89

*.rsu[14].mobility.x = 312.547729152
*.rsu[14].mobility.y = 312.547729152
*.rsu[14].mobility.z = 1.89

*.rsu[15].mobility.x = 270
*.rsu[15].mobility.y = 270
*.rsu[15].mobility.z = 1.89

*.rsu[16].mobility.x = 237.311024938
*.rsu[16].mobility.y = 237.311024938
*.rsu[16].mobility.z = 1.89

*.rsu[17].mobility.x = 295.744570741
*.rsu[17].mobility.y = 295.744570741
*.rsu[17].mobility.z = 1.89

*.rsu[18].mobility.x = 540
*.rsu[18].mobility.y = 540
*.rsu[18].mobility.z = 1.89

*.rsu[19].mobility.x = 423.46161591
*.rsu[19].mobility.y = 423.46161591
*.rsu[19].mobility.z = 1.89

*.rsu[20].mobility.x = 311.065031445
*.rsu[20].mobility.y = 311.065031445
*.rsu[20].mobility.z = 1.89

*.rsu[21].mobility.x = 540
*.rsu[21].mobility.y = 540
*.rsu[21].mobility.z = 1.89

*.rsu[22].mobility.x = 130.997564829
*.rsu[22].mobility.y = 130.997564829
*.rsu[22].mobility.z = 1.89

*.rsu[23].mobility.x = 469.634397194
*.rsu[23].mobility.y = 469.634397194
*.rsu[23].mobility.z = 1.89

*.rsu[24].mobility.x = 540
*.rsu[24].mobility.y = 540
*.rsu[24].mobility.z = 1.89

*.rsu[25].mobility.x = 540
*.rsu[25].mobility.y = 540
*.rsu[25].mobility.z = 1.89

*.rsu[26].mobility.x = 368.322091689
*.rsu[26].mobility.y = 368.322091689
*.rsu[26].mobility.z = 1.89

*.rsu[27].mobility.x = 326.000217169
*.rsu[27].mobility.y = 326.000217169
*.rsu[27].mobility.z = 1.89

*.rsu[28].mobility.x = 810
*.rsu[28].mobility.y = 810
*.rsu[28].mobility.z = 1.89

*.rsu[29].mobility.x = 628.913552005
*.rsu[29].mobility.y = 628.913552005
*.rsu[29].mobility.z = 1.89

*.rsu[30].mobility.x = 558.774988963
*.rsu[30].mobility.y = 558.774988963
*.rsu[30].mobility.z = 1.89

*.rsu[31].mobility.x = 548.236822975
*.rsu[31].mobility.y = 548.236822975
*.rsu[31].mobility.z = 1.89

*.rsu[32].mobility.x = 810
*.rsu[32].mobility.y = 810
*.rsu[32].mobility.z = 1.89

*.rsu[33].mobility.x = 550.476281983
*.rsu[33].mobility.y = 550.476281983
*.rsu[33].mobility.z = 1.89

*.rsu[34].mobility.x = 521.257732272
*.rsu[34].mobility.y = 521.257732272
*.rsu[34].mobility.z = 1.89

*.rsu[35].mobility.x = 493.677791403
*.rsu[35].mobility.y = 493.677791403
*.rsu[35].mobility.z = 1.89

*.rsu[36].mobility.x = 810
*.rsu[36].mobility.y = 810
*.rsu[36].mobility.z = 1.89

*.rsu[37].mobility.x = 810
*.rsu[37].mobility.y = 810
*.rsu[37].mobility.z = 1.89

*.rsu[38].mobility.x = 540
*.rsu[38].mobility.y = 540
*.rsu[38].mobility.z = 1.89

*.rsu[39].mobility.x = 810
*.rsu[39].mobility.y = 810
*.rsu[39].mobility.z = 1.89

*.rsu[40].mobility.x = 483.810472008
*.rsu[40].mobility.y = 483.810472008
*.rsu[40].mobility.z = 1.89

*.rsu[41].mobility.x = 810
*.rsu[41].mobility.y = 810
*.rsu[41].mobility.z = 1.89

*.rsu[42].mobility.x = 769.390749975
*.rsu[42].mobility.y = 769.390749975
*.rsu[42].mobility.z = 1.89

*.rsu[43].mobility.x = 1080
*.rsu[43].mobility.y = 1080
*.rsu[43].mobility.z = 1.89

*.rsu[44].mobility.x = 820.112714895
*.rsu[44].mobility.y = 820.112714895
*.rsu[44].mobility.z = 1.89

*.rsu[45].mobility.x = 1080
*.rsu[45].mobility.y = 1080
*.rsu[45].mobility.z = 1.89

*.rsu[46].mobility.x = 784.134653736
*.rsu[46].mobility.y = 784.134653736
*.rsu[46].mobility.z = 1.89

*.rsu[47].mobility.x = 967.421862112
*.rsu[47].mobility.y = 967.421862112
*.rsu[47].mobility.z = 1.89

*.rsu[48].mobility.x = 1080
*.rsu[48].mobility.y = 1080
*.rsu[48].mobility.z = 1.89

*.rsu[49].mobility.x = 713.207144832
*.rsu[49].mobility.y = 713.207144832
*.rsu[49].mobility.z = 1.89

*.rsu[*].applType = "StatVehicle"
*.rsu[*].appl.headerLength = 80 bit
*.rsu[*].appl.sendBeacons = true
*.rsu[*].appl.dataOnSch = false
*.rsu[*].appl.beaconInterval = 0.1s
*.rsu[*].appl.beaconUserPriority = 7
*.rsu[*].appl.dataUserPriority = 5
*.rsu[*].appl.seedPar = ${repetition}
##########################################################
#            11p specific parameters                     #
#                                                        #
#                    NIC-Settings                        #
##########################################################
*.connectionManager.sendDirect = true
*.connectionManager.maxInterfDist = 2600m
*.connectionManager.drawMaxIntfDist = false

*.**.nic.mac1609_4.useServiceChannel = false

*.**.nic.mac1609_4.txPower = 20mW
*.**.nic.mac1609_4.bitrate = 6Mbps
*.**.nic.phy80211p.sensitivity = -84.39dBm

*.**.nic.phy80211p.useThermalNoise = true
*.**.nic.phy80211p.thermalNoise = -110dBm

*.**.nic.phy80211p.decider = xmldoc("config.xml")
*.**.nic.phy80211p.analogueModels = xmldoc("config.xml")
*.**.nic.phy80211p.usePropagationDelay = true

*.**.nic.phy80211p.antenna = xmldoc("antenna.xml", "/root/Antenna[@id='monopole']")



##########################################################
#                    WaveAppLayer                        #
##########################################################
*.node[*].applType = "Communication"
*.node[*].appl.headerLength = 80 bit
*.node[*].appl.sendBeacons = true
*.node[*].appl.dataOnSch = false
*.node[*].appl.beaconInterval = 0.1s
*.node[*].appl.wsmInterval = 5s
*.node[*].appl.seedPar = ${repetition}
*.node[*].appl.densityMovVeh = ${densityMovVeh}
*.node[*].appl.densityStatVeh = ${densityStatVeh =50}
##########################################################
#                      Mobility                          #
##########################################################
*.node[*].veinsmobilityType.debug = true
*.node[*].veinsmobility.x = 0
*.node[*].veinsmobility.y = 0
*.node[*].veinsmobility.z = 1.895
*.**.nic.mac1609_4.useServiceChannel = true
output-scalar-file = ${resultdir}/${configname}-${repetition}.sca


[Config StVehScenario_100_75]
network = com.liborio.sbrc2018.StVehScenario_100_75
**.scalar-recording = true
**.vector-recording = false

**.debug = false
**.coreDebug = false

*.playgroundSizeX = 2500m
*.playgroundSizeY = 2500m
*.playgroundSizeZ = 50m

##########################################################
# Annotation parameters                                  #
##########################################################
*.annotations.draw = true

##########################################################
# Obstacle parameters                                    #
##########################################################
##########################################################
#            TraCIScenarioManager parameters             #
##########################################################
*.manager.updateInterval = 0.1s
*.manager.host = "localhost"
*.manager.port = 9999
*.manager.autoShutdown = true
*.manager.launchConfig = xmldoc(string(${densityMovVeh=100})+"_"+ string(${repetition})+".launchd.xml")
###########################################################
##                       RSU SETTINGS                     #
##                                                        #
##                                                        #
###########################################################
*.rsu[0].mobility.x = 270
*.rsu[0].mobility.y = 270
*.rsu[0].mobility.z = 1.89

*.rsu[1].mobility.x = 270
*.rsu[1].mobility.y = 270
*.rsu[1].mobility.z = 1.89

*.rsu[2].mobility.x = 100.286227643
*.rsu[2].mobility.y = 100.286227643
*.rsu[2].mobility.z = 1.89

*.rsu[3].mobility.x = 270
*.rsu[3].mobility.y = 270
*.rsu[3].mobility.z = 1.89

*.rsu[4].mobility.x = 8.86046931277
*.rsu[4].mobility.y = 8.86046931277
*.rsu[4].mobility.z = 1.89

*.rsu[5].mobility.x = 58.5919713385
*.rsu[5].mobility.y = 58.5919713385
*.rsu[5].mobility.z = 1.89

*.rsu[6].mobility.x = 0
*.rsu[6].mobility.y = 0
*.rsu[6].mobility.z = 1.89

*.rsu[7].mobility.x = 0
*.rsu[7].mobility.y = 0
*.rsu[7].mobility.z = 1.89

*.rsu[8].mobility.x = 107.653653564
*.rsu[8].mobility.y = 107.653653564
*.rsu[8].mobility.z = 1.89

*.rsu[9].mobility.x = 270
*.rsu[9].mobility.y = 270
*.rsu[9].mobility.z = 1.89

*.rsu[10].mobility.x = 51.5686917254
*.rsu[10].mobility.y = 51.5686917254
*.rsu[10].mobility.z = 1.89

*.rsu[11].mobility.x = 85.1802899455
*.rsu[11].mobility.y = 85.1802899455
*.rsu[11].mobility.z = 1.89

*.rsu[12].mobility.x = 270
*.rsu[12].mobility.y = 270
*.rsu[12].mobility.z = 1.89

*.rsu[13].mobility.x = 0
*.rsu[13].mobility.y = 0
*.rsu[13].mobility.z = 1.89

*.rsu[14].mobility.x = 132.802084672
*.rsu[14].mobility.y = 132.802084672
*.rsu[14].mobility.z = 1.89

*.rsu[15].mobility.x = 191.632877182
*.rsu[15].mobility.y = 191.632877182
*.rsu[15].mobility.z = 1.89

*.rsu[16].mobility.x = 274.904407509
*.rsu[16].mobility.y = 274.904407509
*.rsu[16].mobility.z = 1.89

*.rsu[17].mobility.x = 540
*.rsu[17].mobility.y = 540
*.rsu[17].mobility.z = 1.89

*.rsu[18].mobility.x = 236.229854179
*.rsu[18].mobility.y = 236.229854179
*.rsu[18].mobility.z = 1.89

*.rsu[19].mobility.x = 252.379590166
*.rsu[19].mobility.y = 252.379590166
*.rsu[19].mobility.z = 1.89

*.rsu[20].mobility.x = 277.75744109
*.rsu[20].mobility.y = 277.75744109
*.rsu[20].mobility.z = 1.89

*.rsu[21].mobility.x = 270
*.rsu[21].mobility.y = 270
*.rsu[21].mobility.z = 1.89

*.rsu[22].mobility.x = 476.744711659
*.rsu[22].mobility.y = 476.744711659
*.rsu[22].mobility.z = 1.89

*.rsu[23].mobility.x = 540
*.rsu[23].mobility.y = 540
*.rsu[23].mobility.z = 1.89

*.rsu[24].mobility.x = 177.018034318
*.rsu[24].mobility.y = 177.018034318
*.rsu[24].mobility.z = 1.89

*.rsu[25].mobility.x = 540
*.rsu[25].mobility.y = 540
*.rsu[25].mobility.z = 1.89

*.rsu[26].mobility.x = 270
*.rsu[26].mobility.y = 270
*.rsu[26].mobility.z = 1.89

*.rsu[27].mobility.x = 540
*.rsu[27].mobility.y = 540
*.rsu[27].mobility.z = 1.89

*.rsu[28].mobility.x = 810
*.rsu[28].mobility.y = 810
*.rsu[28].mobility.z = 1.89

*.rsu[29].mobility.x = 810
*.rsu[29].mobility.y = 810
*.rsu[29].mobility.z = 1.89

*.rsu[30].mobility.x = 540
*.rsu[30].mobility.y = 540
*.rsu[30].mobility.z = 1.89

*.rsu[31].mobility.x = 464.307080611
*.rsu[31].mobility.y = 464.307080611
*.rsu[31].mobility.z = 1.89

*.rsu[32].mobility.x = 540
*.rsu[32].mobility.y = 540
*.rsu[32].mobility.z = 1.89

*.rsu[33].mobility.x = 540
*.rsu[33].mobility.y = 540
*.rsu[33].mobility.z = 1.89

*.rsu[34].mobility.x = 540
*.rsu[34].mobility.y = 540
*.rsu[34].mobility.z = 1.89

*.rsu[35].mobility.x = 540
*.rsu[35].mobility.y = 540
*.rsu[35].mobility.z = 1.89

*.rsu[36].mobility.x = 602.010020978
*.rsu[36].mobility.y = 602.010020978
*.rsu[36].mobility.z = 1.89

*.rsu[37].mobility.x = 810
*.rsu[37].mobility.y = 810
*.rsu[37].mobility.z = 1.89

*.rsu[38].mobility.x = 540
*.rsu[38].mobility.y = 540
*.rsu[38].mobility.z = 1.89

*.rsu[39].mobility.x = 597.975224921
*.rsu[39].mobility.y = 597.975224921
*.rsu[39].mobility.z = 1.89

*.rsu[40].mobility.x = 810
*.rsu[40].mobility.y = 810
*.rsu[40].mobility.z = 1.89

*.rsu[41].mobility.x = 490.605497956
*.rsu[41].mobility.y = 490.605497956
*.rsu[41].mobility.z = 1.89

*.rsu[42].mobility.x = 810
*.rsu[42].mobility.y = 810
*.rsu[42].mobility.z = 1.89

*.rsu[43].mobility.x = 1080
*.rsu[43].mobility.y = 1080
*.rsu[43].mobility.z = 1.89

*.rsu[44].mobility.x = 1080
*.rsu[44].mobility.y = 1080
*.rsu[44].mobility.z = 1.89

*.rsu[45].mobility.x = 1080
*.rsu[45].mobility.y = 1080
*.rsu[45].mobility.z = 1.89

*.rsu[46].mobility.x = 1080
*.rsu[46].mobility.y = 1080
*.rsu[46].mobility.z = 1.89

*.rsu[47].mobility.x = 810
*.rsu[47].mobility.y = 810
*.rsu[47].mobility.z = 1.89

*.rsu[48].mobility.x = 1080
*.rsu[48].mobility.y = 1080
*.rsu[48].mobility.z = 1.89

*.rsu[49].mobility.x = 810
*.rsu[49].mobility.y = 810
*.rsu[49].mobility.z = 1.89

*.rsu[50].mobility.x = 800.965392167
*.rsu[50].mobility.y = 800.965392167
*.rsu[50].mobility.z = 1.89

*.rsu[51].mobility.x = 810
*.rsu[51].mobility.y = 810
*.rsu[51].mobility.z = 1.89

*.rsu[52].mobility.x = 1080
*.rsu[52].mobility.y = 1080
*.rsu[52].mobility.z = 1.89

*.rsu[53].mobility.x = 826.825518679
*.rsu[53].mobility.y = 826.825518679
*.rsu[53].mobility.z = 1.89

*.rsu[54].mobility.x = 821.61009025
*.rsu[54].mobility.y = 821.61009025
*.rsu[54].mobility.z = 1.89

*.rsu[55].mobility.x = 1080
*.rsu[55].mobility.y = 1080
*.rsu[55].mobility.z = 1.89

*.rsu[56].mobility.x = 270
*.rsu[56].mobility.y = 270
*.rsu[56].mobility.z = 1.89

*.rsu[57].mobility.x = 69.4087968536
*.rsu[57].mobility.y = 69.4087968536
*.rsu[57].mobility.z = 1.89

*.rsu[58].mobility.x = 270
*.rsu[58].mobility.y = 270
*.rsu[58].mobility.z = 1.89

*.rsu[59].mobility.x = 270
*.rsu[59].mobility.y = 270
*.rsu[59].mobility.z = 1.89

*.rsu[60].mobility.x = 270
*.rsu[60].mobility.y = 270
*.rsu[60].mobility.z = 1.89

*.rsu[61].mobility.x = 0
*.rsu[61].mobility.y = 0
*.rsu[61].mobility.z = 1.89

*.rsu[62].mobility.x = 270
*.rsu[62].mobility.y = 270
*.rsu[62].mobility.z = 1.89

*.rsu[63].mobility.x = 60.6984299763
*.rsu[63].mobility.y = 60.6984299763
*.rsu[63].mobility.z = 1.89

*.rsu[64].mobility.x = 50.6971119065
*.rsu[64].mobility.y = 50.6971119065
*.rsu[64].mobility.z = 1.89

*.rsu[65].mobility.x = 21.3225671687
*.rsu[65].mobility.y = 21.3225671687
*.rsu[65].mobility.z = 1.89

*.rsu[66].mobility.x = 0
*.rsu[66].mobility.y = 0
*.rsu[66].mobility.z = 1.89

*.rsu[67].mobility.x = 270
*.rsu[67].mobility.y = 270
*.rsu[67].mobility.z = 1.89

*.rsu[68].mobility.x = 270
*.rsu[68].mobility.y = 270
*.rsu[68].mobility.z = 1.89

*.rsu[69].mobility.x = 0
*.rsu[69].mobility.y = 0
*.rsu[69].mobility.z = 1.89

*.rsu[70].mobility.x = 436.742830296
*.rsu[70].mobility.y = 436.742830296
*.rsu[70].mobility.z = 1.89

*.rsu[71].mobility.x = 402.726332554
*.rsu[71].mobility.y = 402.726332554
*.rsu[71].mobility.z = 1.89

*.rsu[72].mobility.x = 196.327872956
*.rsu[72].mobility.y = 196.327872956
*.rsu[72].mobility.z = 1.89

*.rsu[73].mobility.x = 447.304182017
*.rsu[73].mobility.y = 447.304182017
*.rsu[73].mobility.z = 1.89

*.rsu[74].mobility.x = 540
*.rsu[74].mobility.y = 540
*.rsu[74].mobility.z = 1.89

*.rsu[*].applType = "StatVehicle"
*.rsu[*].appl.headerLength = 80 bit
*.rsu[*].appl.sendBeacons = true
*.rsu[*].appl.dataOnSch = false
*.rsu[*].appl.beaconInterval = 0.1s
*.rsu[*].appl.beaconUserPriority = 7
*.rsu[*].appl.dataUserPriority = 5
*.rsu[*].appl.seedPar = ${repetition}
##########################################################
#            11p specific parameters                     #
#                                                        #
#                    NIC-Settings                        #
##########################################################
*.connectionManager.sendDirect = true
*.connectionManager.maxInterfDist = 2600m
*.connectionManager.drawMaxIntfDist = false

*.**.nic.mac1609_4.useServiceChannel = false

*.**.nic.mac1609_4.txPower = 20mW
*.**.nic.mac1609_4.bitrate = 6Mbps
*.**.nic.phy80211p.sensitivity = -84.39dBm

*.**.nic.phy80211p.useThermalNoise = true
*.**.nic.phy80211p.thermalNoise = -110dBm

*.**.nic.phy80211p.decider = xmldoc("config.xml")
*.**.nic.phy80211p.analogueModels = xmldoc("config.xml")
*.**.nic.phy80211p.usePropagationDelay = true

*.**.nic.phy80211p.antenna = xmldoc("antenna.xml", "/root/Antenna[@id='monopole']")



##########################################################
#                    WaveAppLayer                        #
##########################################################
*.node[*].applType = "Communication"
*.node[*].appl.headerLength = 80 bit
*.node[*].appl.sendBeacons = true
*.node[*].appl.dataOnSch = false
*.node[*].appl.beaconInterval = 0.1s
*.node[*].appl.wsmInterval = 5s
*.node[*].appl.seedPar = ${repetition}
*.node[*].appl.densityMovVeh = ${densityMovVeh}
*.node[*].appl.densityStatVeh = ${densityStatVeh =75}
##########################################################
#                      Mobility                          #
##########################################################
*.node[*].veinsmobilityType.debug = true
*.node[*].veinsmobility.x = 0
*.node[*].veinsmobility.y = 0
*.node[*].veinsmobility.z = 1.895
*.**.nic.mac1609_4.useServiceChannel = true
output-scalar-file = ${resultdir}/${configname}-${repetition}.sca


[Config StVehScenario_100_100]
network = com.liborio.sbrc2018.StVehScenario_100_100
**.scalar-recording = true
**.vector-recording = false

**.debug = false
**.coreDebug = false

*.playgroundSizeX = 2500m
*.playgroundSizeY = 2500m
*.playgroundSizeZ = 50m

##########################################################
# Annotation parameters                                  #
##########################################################
*.annotations.draw = true

##########################################################
# Obstacle parameters                                    #
##########################################################
##########################################################
#            TraCIScenarioManager parameters             #
##########################################################
*.manager.updateInterval = 0.1s
*.manager.host = "localhost"
*.manager.port = 9999
*.manager.autoShutdown = true
*.manager.launchConfig = xmldoc(string(${densityMovVeh=100})+"_"+ string(${repetition})+".launchd.xml")
###########################################################
##                       RSU SETTINGS                     #
##                                                        #
##                                                        #
###########################################################
*.rsu[0].mobility.x = 221.596655027
*.rsu[0].mobility.y = 221.596655027
*.rsu[0].mobility.z = 1.89

*.rsu[1].mobility.x = 88.8818698345
*.rsu[1].mobility.y = 88.8818698345
*.rsu[1].mobility.z = 1.89

*.rsu[2].mobility.x = 34.6464325566
*.rsu[2].mobility.y = 34.6464325566
*.rsu[2].mobility.z = 1.89

*.rsu[3].mobility.x = 155.62291953
*.rsu[3].mobility.y = 155.62291953
*.rsu[3].mobility.z = 1.89

*.rsu[4].mobility.x = 34.4354995802
*.rsu[4].mobility.y = 34.4354995802
*.rsu[4].mobility.z = 1.89

*.rsu[5].mobility.x = 96.7421428865
*.rsu[5].mobility.y = 96.7421428865
*.rsu[5].mobility.z = 1.89

*.rsu[6].mobility.x = 78.27021668
*.rsu[6].mobility.y = 78.27021668
*.rsu[6].mobility.z = 1.89

*.rsu[7].mobility.x = 49.6697737328
*.rsu[7].mobility.y = 49.6697737328
*.rsu[7].mobility.z = 1.89

*.rsu[8].mobility.x = 0
*.rsu[8].mobility.y = 0
*.rsu[8].mobility.z = 1.89

*.rsu[9].mobility.x = 0
*.rsu[9].mobility.y = 0
*.rsu[9].mobility.z = 1.89

*.rsu[10].mobility.x = 187.285291017
*.rsu[10].mobility.y = 187.285291017
*.rsu[10].mobility.z = 1.89

*.rsu[11].mobility.x = 270
*.rsu[11].mobility.y = 270
*.rsu[11].mobility.z = 1.89

*.rsu[12].mobility.x = 135.36177174
*.rsu[12].mobility.y = 135.36177174
*.rsu[12].mobility.z = 1.89

*.rsu[13].mobility.x = 52.3100249758
*.rsu[13].mobility.y = 52.3100249758
*.rsu[13].mobility.z = 1.89

*.rsu[14].mobility.x = 147.688695283
*.rsu[14].mobility.y = 147.688695283
*.rsu[14].mobility.z = 1.89

*.rsu[15].mobility.x = 418.641032936
*.rsu[15].mobility.y = 418.641032936
*.rsu[15].mobility.z = 1.89

*.rsu[16].mobility.x = 205.16438113
*.rsu[16].mobility.y = 205.16438113
*.rsu[16].mobility.z = 1.89

*.rsu[17].mobility.x = 270
*.rsu[17].mobility.y = 270
*.rsu[17].mobility.z = 1.89

*.rsu[18].mobility.x = 270
*.rsu[18].mobility.y = 270
*.rsu[18].mobility.z = 1.89

*.rsu[19].mobility.x = 424.950431269
*.rsu[19].mobility.y = 424.950431269
*.rsu[19].mobility.z = 1.89

*.rsu[20].mobility.x = 270
*.rsu[20].mobility.y = 270
*.rsu[20].mobility.z = 1.89

*.rsu[21].mobility.x = 206.85518983
*.rsu[21].mobility.y = 206.85518983
*.rsu[21].mobility.z = 1.89

*.rsu[22].mobility.x = 540
*.rsu[22].mobility.y = 540
*.rsu[22].mobility.z = 1.89

*.rsu[23].mobility.x = 270
*.rsu[23].mobility.y = 270
*.rsu[23].mobility.z = 1.89

*.rsu[24].mobility.x = 362.985005741
*.rsu[24].mobility.y = 362.985005741
*.rsu[24].mobility.z = 1.89

*.rsu[25].mobility.x = 368.530387213
*.rsu[25].mobility.y = 368.530387213
*.rsu[25].mobility.z = 1.89

*.rsu[26].mobility.x = 540
*.rsu[26].mobility.y = 540
*.rsu[26].mobility.z = 1.89

*.rsu[27].mobility.x = 540
*.rsu[27].mobility.y = 540
*.rsu[27].mobility.z = 1.89

*.rsu[28].mobility.x = 598.573509766
*.rsu[28].mobility.y = 598.573509766
*.rsu[28].mobility.z = 1.89

*.rsu[29].mobility.x = 540
*.rsu[29].mobility.y = 540
*.rsu[29].mobility.z = 1.89

*.rsu[30].mobility.x = 658.06368077
*.rsu[30].mobility.y = 658.06368077
*.rsu[30].mobility.z = 1.89

*.rsu[31].mobility.x = 705.311190259
*.rsu[31].mobility.y = 705.311190259
*.rsu[31].mobility.z = 1.89

*.rsu[32].mobility.x = 810
*.rsu[32].mobility.y = 810
*.rsu[32].mobility.z = 1.89

*.rsu[33].mobility.x = 810
*.rsu[33].mobility.y = 810
*.rsu[33].mobility.z = 1.89

*.rsu[34].mobility.x = 496.594771133
*.rsu[34].mobility.y = 496.594771133
*.rsu[34].mobility.z = 1.89

*.rsu[35].mobility.x = 540
*.rsu[35].mobility.y = 540
*.rsu[35].mobility.z = 1.89

*.rsu[36].mobility.x = 810
*.rsu[36].mobility.y = 810
*.rsu[36].mobility.z = 1.89

*.rsu[37].mobility.x = 566.489795979
*.rsu[37].mobility.y = 566.489795979
*.rsu[37].mobility.z = 1.89

*.rsu[38].mobility.x = 507.323904772
*.rsu[38].mobility.y = 507.323904772
*.rsu[38].mobility.z = 1.89

*.rsu[39].mobility.x = 558.874656205
*.rsu[39].mobility.y = 558.874656205
*.rsu[39].mobility.z = 1.89

*.rsu[40].mobility.x = 405.178348976
*.rsu[40].mobility.y = 405.178348976
*.rsu[40].mobility.z = 1.89

*.rsu[41].mobility.x = 540
*.rsu[41].mobility.y = 540
*.rsu[41].mobility.z = 1.89

*.rsu[42].mobility.x = 735.974105675
*.rsu[42].mobility.y = 735.974105675
*.rsu[42].mobility.z = 1.89

*.rsu[43].mobility.x = 1080